[root]
type=Root
children=system
eventq_index=0
full_system=false
sim_quantum=0
time_sync_enable=false
time_sync_period=100000000000
time_sync_spin_threshold=100000000

[system]
type=System
children=clk_domain cpu_cluster dvfs_handler mem_ctrls0 mem_ctrls1 membus voltage_domain workload
auto_unlink_shared_backstore=false
cache_line_size=64
eventq_index=0
exit_on_work_items=false
init_param=0
m5ops_base=0
mem_mode=timing
mem_ranges=0:2147483648
memories=system.mem_ctrls0.dram system.mem_ctrls1.dram
mmap_using_noreserve=false
multi_thread=false
num_work_ids=16
readfile=
redirect_paths=
shadow_rom_ranges=
shared_backstore=
symbolfile=
thermal_components=
thermal_model=Null
work_begin_ckpt_count=0
work_begin_cpu_id_exit=-1
work_begin_exit_count=0
work_cpus_ckpt_count=0
work_end_ckpt_count=0
work_end_exit_count=0
work_item_id=-1
workload=system.workload
system_port=system.membus.cpu_side_ports[0]

[system.clk_domain]
type=SrcClockDomain
clock=1000
domain_id=-1
eventq_index=0
init_perf_level=0
voltage_domain=system.voltage_domain

[system.cpu_cluster]
type=CpuCluster
children=clk_domain cpus l2 toL2Bus voltage_domain
clk_domain=system.cpu_cluster.clk_domain
eventq_index=0
thermal_domain=Null
voltage_domain=system.cpu_cluster.voltage_domain

[system.cpu_cluster.clk_domain]
type=SrcClockDomain
clock=250
domain_id=-1
eventq_index=0
init_perf_level=0
voltage_domain=system.cpu_cluster.voltage_domain

[system.cpu_cluster.cpus]
type=BaseO3CPU
children=branchPred dcache decoder fuPool icache interrupts isa mmu power_state tracer workload
LFSTSize=1024
LQEntries=16
LSQCheckLoads=true
LSQDepCheckShift=0
SQEntries=16
SSITSize=1024
activity=0
backComSize=5
branchPred=system.cpu_cluster.cpus.branchPred
cacheLoadPorts=200
cacheStorePorts=200
checker=Null
clk_domain=system.cpu_cluster.clk_domain
commitToDecodeDelay=1
commitToFetchDelay=1
commitToIEWDelay=1
commitToRenameDelay=1
commitWidth=8
cpu_id=0
decodeToFetchDelay=1
decodeToRenameDelay=2
decodeWidth=3
decoder=system.cpu_cluster.cpus.decoder
dispatchWidth=6
do_checkpoint_insts=true
do_statistics_insts=true
eventq_index=0
fetchBufferSize=16
fetchQueueSize=32
fetchToDecodeDelay=3
fetchTrapLatency=1
fetchWidth=3
forwardComSize=5
fuPool=system.cpu_cluster.cpus.fuPool
function_trace=false
function_trace_start=0
iewToCommitDelay=1
iewToDecodeDelay=1
iewToFetchDelay=1
iewToRenameDelay=1
interrupts=system.cpu_cluster.cpus.interrupts
isa=system.cpu_cluster.cpus.isa
issueToExecuteDelay=1
issueWidth=8
max_insts_all_threads=0
max_insts_any_thread=0
mmu=system.cpu_cluster.cpus.mmu
needsTSO=false
numIQEntries=48
numPhysCCRegs=450
numPhysFloatRegs=256
numPhysIntRegs=90
numPhysMatRegs=2
numPhysVecPredRegs=32
numPhysVecRegs=256
numROBEntries=60
numRobs=1
numThreads=1
power_gating_on_idle=false
power_model=
power_state=system.cpu_cluster.cpus.power_state
progress_interval=0
pwr_gating_latency=300
renameToDecodeDelay=1
renameToFetchDelay=1
renameToIEWDelay=1
renameToROBDelay=1
renameWidth=3
simpoint_start_insts=
smtCommitPolicy=RoundRobin
smtFetchPolicy=RoundRobin
smtIQPolicy=Partitioned
smtIQThreshold=100
smtLSQPolicy=Partitioned
smtLSQThreshold=100
smtNumFetchingThreads=1
smtROBPolicy=Partitioned
smtROBThreshold=100
socket_id=0
squashWidth=8
store_set_clear_period=250000
switched_out=false
syscallRetryLatency=10000
system=system
tracer=system.cpu_cluster.cpus.tracer
trapLatency=13
wbWidth=8
workload=system.cpu_cluster.cpus.workload
dcache_port=system.cpu_cluster.cpus.dcache.cpu_side
icache_port=system.cpu_cluster.cpus.icache.cpu_side

[system.cpu_cluster.cpus.branchPred]
type=TournamentBP
children=indirectBranchPred
BTBEntries=128
BTBTagSize=18
RASSize=8
choiceCtrBits=2
choicePredictorSize=1024
eventq_index=0
globalCtrBits=2
globalPredictorSize=1024
indirectBranchPred=system.cpu_cluster.cpus.branchPred.indirectBranchPred
instShiftAmt=2
localCtrBits=2
localHistoryTableSize=64
localPredictorSize=64
numThreads=1

[system.cpu_cluster.cpus.branchPred.indirectBranchPred]
type=SimpleIndirectPredictor
eventq_index=0
indirectGHRBits=13
indirectHashGHR=true
indirectHashTargets=true
indirectPathLength=3
indirectSets=256
indirectTagSize=16
indirectWays=2
instShiftAmt=2
numThreads=1

[system.cpu_cluster.cpus.dcache]
type=Cache
children=power_state replacement_policy tags
addr_ranges=0:18446744073709551615
assoc=2
clk_domain=system.cpu_cluster.clk_domain
clusivity=mostly_incl
compressor=Null
data_latency=2
demand_mshr_reserve=1
eventq_index=0
is_read_only=false
max_miss_count=0
move_contractions=true
mshrs=6
power_model=
power_state=system.cpu_cluster.cpus.dcache.power_state
prefetch_on_access=false
prefetch_on_pf_hit=false
prefetcher=Null
replace_expansions=true
replacement_policy=system.cpu_cluster.cpus.dcache.replacement_policy
response_latency=2
sequential_access=false
size=32768
system=system
tag_latency=2
tags=system.cpu_cluster.cpus.dcache.tags
tgts_per_mshr=8
warmup_percentage=0
write_allocator=Null
write_buffers=16
writeback_clean=true
cpu_side=system.cpu_cluster.cpus.dcache_port
mem_side=system.cpu_cluster.toL2Bus.cpu_side_ports[1]

[system.cpu_cluster.cpus.dcache.power_state]
type=PowerState
clk_gate_bins=20
clk_gate_max=1000000000000
clk_gate_min=1000
default_state=UNDEFINED
eventq_index=0
leaders=
possible_states=

[system.cpu_cluster.cpus.dcache.replacement_policy]
type=LRURP
eventq_index=0

[system.cpu_cluster.cpus.dcache.tags]
type=BaseSetAssoc
children=indexing_policy power_state
assoc=2
block_size=64
clk_domain=system.cpu_cluster.clk_domain
entry_size=64
eventq_index=0
indexing_policy=system.cpu_cluster.cpus.dcache.tags.indexing_policy
power_model=
power_state=system.cpu_cluster.cpus.dcache.tags.power_state
replacement_policy=system.cpu_cluster.cpus.dcache.replacement_policy
sequential_access=false
size=32768
system=system
tag_latency=2
warmup_percentage=0

[system.cpu_cluster.cpus.dcache.tags.indexing_policy]
type=SetAssociative
assoc=2
entry_size=64
eventq_index=0
size=32768

[system.cpu_cluster.cpus.dcache.tags.power_state]
type=PowerState
clk_gate_bins=20
clk_gate_max=1000000000000
clk_gate_min=1000
default_state=UNDEFINED
eventq_index=0
leaders=
possible_states=

[system.cpu_cluster.cpus.decoder]
type=ArmDecoder
dvm_enabled=false
eventq_index=0
isa=system.cpu_cluster.cpus.isa

[system.cpu_cluster.cpus.fuPool]
type=FUPool
children=FUList0 FUList1 FUList2 FUList3 FUList4
FUList=system.cpu_cluster.cpus.fuPool.FUList0 system.cpu_cluster.cpus.fuPool.FUList1 system.cpu_cluster.cpus.fuPool.FUList2 system.cpu_cluster.cpus.fuPool.FUList3 system.cpu_cluster.cpus.fuPool.FUList4
eventq_index=0

[system.cpu_cluster.cpus.fuPool.FUList0]
type=FUDesc
children=opList
count=2
eventq_index=0
opList=system.cpu_cluster.cpus.fuPool.FUList0.opList

[system.cpu_cluster.cpus.fuPool.FUList0.opList]
type=OpDesc
eventq_index=0
opClass=IntAlu
opLat=1
pipelined=true

[system.cpu_cluster.cpus.fuPool.FUList1]
type=FUDesc
children=opList0 opList1 opList2
count=1
eventq_index=0
opList=system.cpu_cluster.cpus.fuPool.FUList1.opList0 system.cpu_cluster.cpus.fuPool.FUList1.opList1 system.cpu_cluster.cpus.fuPool.FUList1.opList2

[system.cpu_cluster.cpus.fuPool.FUList1.opList0]
type=OpDesc
eventq_index=0
opClass=IntMult
opLat=4
pipelined=true

[system.cpu_cluster.cpus.fuPool.FUList1.opList1]
type=OpDesc
eventq_index=0
opClass=IntDiv
opLat=11
pipelined=false

[system.cpu_cluster.cpus.fuPool.FUList1.opList2]
type=OpDesc
eventq_index=0
opClass=IprAccess
opLat=3
pipelined=true

[system.cpu_cluster.cpus.fuPool.FUList2]
type=FUDesc
children=opList
count=1
eventq_index=0
opList=system.cpu_cluster.cpus.fuPool.FUList2.opList

[system.cpu_cluster.cpus.fuPool.FUList2.opList]
type=OpDesc
eventq_index=0
opClass=MemRead
opLat=2
pipelined=true

[system.cpu_cluster.cpus.fuPool.FUList3]
type=FUDesc
children=opList
count=1
eventq_index=0
opList=system.cpu_cluster.cpus.fuPool.FUList3.opList

[system.cpu_cluster.cpus.fuPool.FUList3.opList]
type=OpDesc
eventq_index=0
opClass=MemWrite
opLat=2
pipelined=true

[system.cpu_cluster.cpus.fuPool.FUList4]
type=FUDesc
children=opList00 opList01 opList02 opList03 opList04 opList05 opList06 opList07 opList08 opList09 opList10 opList11 opList12 opList13 opList14 opList15 opList16 opList17 opList18 opList19 opList20 opList21 opList22 opList23 opList24 opList25 opList26 opList27
count=2
eventq_index=0
opList=system.cpu_cluster.cpus.fuPool.FUList4.opList00 system.cpu_cluster.cpus.fuPool.FUList4.opList01 system.cpu_cluster.cpus.fuPool.FUList4.opList02 system.cpu_cluster.cpus.fuPool.FUList4.opList03 system.cpu_cluster.cpus.fuPool.FUList4.opList04 system.cpu_cluster.cpus.fuPool.FUList4.opList05 system.cpu_cluster.cpus.fuPool.FUList4.opList06 system.cpu_cluster.cpus.fuPool.FUList4.opList07 system.cpu_cluster.cpus.fuPool.FUList4.opList08 system.cpu_cluster.cpus.fuPool.FUList4.opList09 system.cpu_cluster.cpus.fuPool.FUList4.opList10 system.cpu_cluster.cpus.fuPool.FUList4.opList11 system.cpu_cluster.cpus.fuPool.FUList4.opList12 system.cpu_cluster.cpus.fuPool.FUList4.opList13 system.cpu_cluster.cpus.fuPool.FUList4.opList14 system.cpu_cluster.cpus.fuPool.FUList4.opList15 system.cpu_cluster.cpus.fuPool.FUList4.opList16 system.cpu_cluster.cpus.fuPool.FUList4.opList17 system.cpu_cluster.cpus.fuPool.FUList4.opList18 system.cpu_cluster.cpus.fuPool.FUList4.opList19 system.cpu_cluster.cpus.fuPool.FUList4.opList20 system.cpu_cluster.cpus.fuPool.FUList4.opList21 system.cpu_cluster.cpus.fuPool.FUList4.opList22 system.cpu_cluster.cpus.fuPool.FUList4.opList23 system.cpu_cluster.cpus.fuPool.FUList4.opList24 system.cpu_cluster.cpus.fuPool.FUList4.opList25 system.cpu_cluster.cpus.fuPool.FUList4.opList26 system.cpu_cluster.cpus.fuPool.FUList4.opList27

[system.cpu_cluster.cpus.fuPool.FUList4.opList00]
type=OpDesc
eventq_index=0
opClass=SimdAdd
opLat=3
pipelined=true

[system.cpu_cluster.cpus.fuPool.FUList4.opList01]
type=OpDesc
eventq_index=0
opClass=SimdAddAcc
opLat=4
pipelined=true

[system.cpu_cluster.cpus.fuPool.FUList4.opList02]
type=OpDesc
eventq_index=0
opClass=SimdAlu
opLat=4
pipelined=true

[system.cpu_cluster.cpus.fuPool.FUList4.opList03]
type=OpDesc
eventq_index=0
opClass=SimdCmp
opLat=4
pipelined=true

[system.cpu_cluster.cpus.fuPool.FUList4.opList04]
type=OpDesc
eventq_index=0
opClass=SimdCvt
opLat=3
pipelined=true

[system.cpu_cluster.cpus.fuPool.FUList4.opList05]
type=OpDesc
eventq_index=0
opClass=SimdMisc
opLat=3
pipelined=true

[system.cpu_cluster.cpus.fuPool.FUList4.opList06]
type=OpDesc
eventq_index=0
opClass=SimdMult
opLat=6
pipelined=true

[system.cpu_cluster.cpus.fuPool.FUList4.opList07]
type=OpDesc
eventq_index=0
opClass=SimdMultAcc
opLat=5
pipelined=true

[system.cpu_cluster.cpus.fuPool.FUList4.opList08]
type=OpDesc
eventq_index=0
opClass=SimdMatMultAcc
opLat=5
pipelined=true

[system.cpu_cluster.cpus.fuPool.FUList4.opList09]
type=OpDesc
eventq_index=0
opClass=SimdShift
opLat=3
pipelined=true

[system.cpu_cluster.cpus.fuPool.FUList4.opList10]
type=OpDesc
eventq_index=0
opClass=SimdShiftAcc
opLat=3
pipelined=true

[system.cpu_cluster.cpus.fuPool.FUList4.opList11]
type=OpDesc
eventq_index=0
opClass=SimdSqrt
opLat=9
pipelined=true

[system.cpu_cluster.cpus.fuPool.FUList4.opList12]
type=OpDesc
eventq_index=0
opClass=SimdFloatAdd
opLat=6
pipelined=true

[system.cpu_cluster.cpus.fuPool.FUList4.opList13]
type=OpDesc
eventq_index=0
opClass=SimdFloatAlu
opLat=5
pipelined=true

[system.cpu_cluster.cpus.fuPool.FUList4.opList14]
type=OpDesc
eventq_index=0
opClass=SimdFloatCmp
opLat=3
pipelined=true

[system.cpu_cluster.cpus.fuPool.FUList4.opList15]
type=OpDesc
eventq_index=0
opClass=SimdFloatCvt
opLat=3
pipelined=true

[system.cpu_cluster.cpus.fuPool.FUList4.opList16]
type=OpDesc
eventq_index=0
opClass=SimdFloatDiv
opLat=21
pipelined=true

[system.cpu_cluster.cpus.fuPool.FUList4.opList17]
type=OpDesc
eventq_index=0
opClass=SimdFloatMisc
opLat=3
pipelined=true

[system.cpu_cluster.cpus.fuPool.FUList4.opList18]
type=OpDesc
eventq_index=0
opClass=SimdFloatMult
opLat=6
pipelined=true

[system.cpu_cluster.cpus.fuPool.FUList4.opList19]
type=OpDesc
eventq_index=0
opClass=SimdFloatMultAcc
opLat=1
pipelined=true

[system.cpu_cluster.cpus.fuPool.FUList4.opList20]
type=OpDesc
eventq_index=0
opClass=SimdFloatMatMultAcc
opLat=1
pipelined=true

[system.cpu_cluster.cpus.fuPool.FUList4.opList21]
type=OpDesc
eventq_index=0
opClass=SimdFloatSqrt
opLat=9
pipelined=true

[system.cpu_cluster.cpus.fuPool.FUList4.opList22]
type=OpDesc
eventq_index=0
opClass=FloatAdd
opLat=6
pipelined=true

[system.cpu_cluster.cpus.fuPool.FUList4.opList23]
type=OpDesc
eventq_index=0
opClass=FloatCmp
opLat=5
pipelined=true

[system.cpu_cluster.cpus.fuPool.FUList4.opList24]
type=OpDesc
eventq_index=0
opClass=FloatCvt
opLat=5
pipelined=true

[system.cpu_cluster.cpus.fuPool.FUList4.opList25]
type=OpDesc
eventq_index=0
opClass=FloatDiv
opLat=12
pipelined=false

[system.cpu_cluster.cpus.fuPool.FUList4.opList26]
type=OpDesc
eventq_index=0
opClass=FloatSqrt
opLat=33
pipelined=false

[system.cpu_cluster.cpus.fuPool.FUList4.opList27]
type=OpDesc
eventq_index=0
opClass=FloatMult
opLat=8
pipelined=true

[system.cpu_cluster.cpus.icache]
type=Cache
children=power_state replacement_policy tags
addr_ranges=0:18446744073709551615
assoc=2
clk_domain=system.cpu_cluster.clk_domain
clusivity=mostly_incl
compressor=Null
data_latency=2
demand_mshr_reserve=1
eventq_index=0
is_read_only=true
max_miss_count=0
move_contractions=true
mshrs=2
power_model=
power_state=system.cpu_cluster.cpus.icache.power_state
prefetch_on_access=false
prefetch_on_pf_hit=false
prefetcher=Null
replace_expansions=true
replacement_policy=system.cpu_cluster.cpus.icache.replacement_policy
response_latency=2
sequential_access=false
size=32768
system=system
tag_latency=2
tags=system.cpu_cluster.cpus.icache.tags
tgts_per_mshr=8
warmup_percentage=0
write_allocator=Null
write_buffers=8
writeback_clean=true
cpu_side=system.cpu_cluster.cpus.icache_port
mem_side=system.cpu_cluster.toL2Bus.cpu_side_ports[0]

[system.cpu_cluster.cpus.icache.power_state]
type=PowerState
clk_gate_bins=20
clk_gate_max=1000000000000
clk_gate_min=1000
default_state=UNDEFINED
eventq_index=0
leaders=
possible_states=

[system.cpu_cluster.cpus.icache.replacement_policy]
type=LRURP
eventq_index=0

[system.cpu_cluster.cpus.icache.tags]
type=BaseSetAssoc
children=indexing_policy power_state
assoc=2
block_size=64
clk_domain=system.cpu_cluster.clk_domain
entry_size=64
eventq_index=0
indexing_policy=system.cpu_cluster.cpus.icache.tags.indexing_policy
power_model=
power_state=system.cpu_cluster.cpus.icache.tags.power_state
replacement_policy=system.cpu_cluster.cpus.icache.replacement_policy
sequential_access=false
size=32768
system=system
tag_latency=2
warmup_percentage=0

[system.cpu_cluster.cpus.icache.tags.indexing_policy]
type=SetAssociative
assoc=2
entry_size=64
eventq_index=0
size=32768

[system.cpu_cluster.cpus.icache.tags.power_state]
type=PowerState
clk_gate_bins=20
clk_gate_max=1000000000000
clk_gate_min=1000
default_state=UNDEFINED
eventq_index=0
leaders=
possible_states=

[system.cpu_cluster.cpus.interrupts]
type=ArmInterrupts
eventq_index=0

[system.cpu_cluster.cpus.isa]
type=ArmISA
children=release_se
decoderFlavor=Generic
eventq_index=0
fpsid=1090793632
id_aa64afr0_el1=0
id_aa64afr1_el1=0
id_aa64dfr0_el1=15790086
id_aa64dfr1_el1=0
id_aa64isar0_el1=268435456
id_aa64isar1_el1=16846864
id_aa64mmfr0_el1=15728642
id_aa64mmfr1_el1=1052704
id_aa64mmfr2_el1=65552
id_isar0=34607377
id_isar1=34677009
id_isar2=555950401
id_isar3=17899825
id_isar4=268501314
id_isar5=285212672
id_isar6=1
id_mmfr0=270536963
id_mmfr1=0
id_mmfr2=19070976
id_mmfr3=34611729
id_mmfr4=0
impdef_nop=false
midr=0
pmu=Null
release_se=system.cpu_cluster.cpus.isa.release_se
sme_vl_se=1
sve_vl_se=1
system=system

[system.cpu_cluster.cpus.isa.release_se]
type=ArmRelease
eventq_index=0
extensions=CRYPTO FEAT_LSE FEAT_RDM FEAT_F32MM FEAT_F64MM FEAT_SVE FEAT_I8MM FEAT_DOTPROD FEAT_FCMA FEAT_JSCVT FEAT_PAuth FEAT_FLAGM FEAT_FLAGM2 FEAT_SME TME

[system.cpu_cluster.cpus.mmu]
type=ArmMMU
children=dtb dtb_walker itb itb_walker l2_shared stage2_dtb stage2_dtb_walker stage2_itb stage2_itb_walker
dtb=system.cpu_cluster.cpus.mmu.dtb
dtb_walker=system.cpu_cluster.cpus.mmu.dtb_walker
eventq_index=0
itb=system.cpu_cluster.cpus.mmu.itb
itb_walker=system.cpu_cluster.cpus.mmu.itb_walker
release_se=system.cpu_cluster.cpus.isa.release_se
stage2_dtb=system.cpu_cluster.cpus.mmu.stage2_dtb
stage2_dtb_walker=system.cpu_cluster.cpus.mmu.stage2_dtb_walker
stage2_itb=system.cpu_cluster.cpus.mmu.stage2_itb
stage2_itb_walker=system.cpu_cluster.cpus.mmu.stage2_itb_walker
sys=system

[system.cpu_cluster.cpus.mmu.dtb]
type=ArmTLB
entry_type=data
eventq_index=0
is_stage2=false
next_level=system.cpu_cluster.cpus.mmu.l2_shared
partial_levels=
size=64
sys=system

[system.cpu_cluster.cpus.mmu.dtb_walker]
type=ArmTableWalker
children=power_state
clk_domain=system.cpu_cluster.clk_domain
eventq_index=0
is_stage2=false
num_squash_per_cycle=2
power_model=
power_state=system.cpu_cluster.cpus.mmu.dtb_walker.power_state
sys=system
port=system.cpu_cluster.toL2Bus.cpu_side_ports[3]

[system.cpu_cluster.cpus.mmu.dtb_walker.power_state]
type=PowerState
clk_gate_bins=20
clk_gate_max=1000000000000
clk_gate_min=1000
default_state=UNDEFINED
eventq_index=0
leaders=
possible_states=

[system.cpu_cluster.cpus.mmu.itb]
type=ArmTLB
entry_type=instruction
eventq_index=0
is_stage2=false
next_level=system.cpu_cluster.cpus.mmu.l2_shared
partial_levels=
size=64
sys=system

[system.cpu_cluster.cpus.mmu.itb_walker]
type=ArmTableWalker
children=power_state
clk_domain=system.cpu_cluster.clk_domain
eventq_index=0
is_stage2=false
num_squash_per_cycle=2
power_model=
power_state=system.cpu_cluster.cpus.mmu.itb_walker.power_state
sys=system
port=system.cpu_cluster.toL2Bus.cpu_side_ports[2]

[system.cpu_cluster.cpus.mmu.itb_walker.power_state]
type=PowerState
clk_gate_bins=20
clk_gate_max=1000000000000
clk_gate_min=1000
default_state=UNDEFINED
eventq_index=0
leaders=
possible_states=

[system.cpu_cluster.cpus.mmu.l2_shared]
type=ArmTLB
entry_type=unified
eventq_index=0
is_stage2=false
next_level=Null
partial_levels=L2
size=1280
sys=system

[system.cpu_cluster.cpus.mmu.stage2_dtb]
type=ArmTLB
entry_type=data
eventq_index=0
is_stage2=true
next_level=Null
partial_levels=
size=32
sys=system

[system.cpu_cluster.cpus.mmu.stage2_dtb_walker]
type=ArmTableWalker
children=power_state
clk_domain=system.cpu_cluster.clk_domain
eventq_index=0
is_stage2=true
num_squash_per_cycle=2
power_model=
power_state=system.cpu_cluster.cpus.mmu.stage2_dtb_walker.power_state
sys=system
port=system.cpu_cluster.toL2Bus.cpu_side_ports[5]

[system.cpu_cluster.cpus.mmu.stage2_dtb_walker.power_state]
type=PowerState
clk_gate_bins=20
clk_gate_max=1000000000000
clk_gate_min=1000
default_state=UNDEFINED
eventq_index=0
leaders=
possible_states=

[system.cpu_cluster.cpus.mmu.stage2_itb]
type=ArmTLB
entry_type=instruction
eventq_index=0
is_stage2=true
next_level=Null
partial_levels=
size=32
sys=system

[system.cpu_cluster.cpus.mmu.stage2_itb_walker]
type=ArmTableWalker
children=power_state
clk_domain=system.cpu_cluster.clk_domain
eventq_index=0
is_stage2=true
num_squash_per_cycle=2
power_model=
power_state=system.cpu_cluster.cpus.mmu.stage2_itb_walker.power_state
sys=system
port=system.cpu_cluster.toL2Bus.cpu_side_ports[4]

[system.cpu_cluster.cpus.mmu.stage2_itb_walker.power_state]
type=PowerState
clk_gate_bins=20
clk_gate_max=1000000000000
clk_gate_min=1000
default_state=UNDEFINED
eventq_index=0
leaders=
possible_states=

[system.cpu_cluster.cpus.power_state]
type=PowerState
clk_gate_bins=20
clk_gate_max=1000000000000
clk_gate_min=1000
default_state=UNDEFINED
eventq_index=0
leaders=
possible_states=ON CLK_GATED OFF

[system.cpu_cluster.cpus.tracer]
type=ExeTracer
eventq_index=0

[system.cpu_cluster.cpus.workload]
type=Process
cmd=/local/benchmarks/bubbleSort.img
cwd=/local
drivers=
egid=100
env=
errout=cerr
euid=100
eventq_index=0
executable=/local/benchmarks/bubbleSort.img
gid=0
input=cin
kvmInSE=false
maxStackSize=67108864
output=cout
pgid=100
pid=100
ppid=0
release=5.1.0
simpoint=0
system=system
uid=100
useArchPT=false

[system.cpu_cluster.l2]
type=Cache
children=power_state prefetcher replacement_policy tags
addr_ranges=0:18446744073709551615
assoc=16
clk_domain=system.cpu_cluster.clk_domain
clusivity=mostly_excl
compressor=Null
data_latency=15
demand_mshr_reserve=1
eventq_index=0
is_read_only=false
max_miss_count=0
move_contractions=true
mshrs=16
power_model=
power_state=system.cpu_cluster.l2.power_state
prefetch_on_access=true
prefetch_on_pf_hit=false
prefetcher=system.cpu_cluster.l2.prefetcher
replace_expansions=true
replacement_policy=system.cpu_cluster.l2.replacement_policy
response_latency=15
sequential_access=false
size=2097152
system=system
tag_latency=15
tags=system.cpu_cluster.l2.tags
tgts_per_mshr=8
warmup_percentage=0
write_allocator=Null
write_buffers=8
writeback_clean=false
cpu_side=system.cpu_cluster.toL2Bus.mem_side_ports[0]
mem_side=system.membus.cpu_side_ports[1]

[system.cpu_cluster.l2.power_state]
type=PowerState
clk_gate_bins=20
clk_gate_max=1000000000000
clk_gate_min=1000
default_state=UNDEFINED
eventq_index=0
leaders=
possible_states=

[system.cpu_cluster.l2.prefetcher]
type=StridePrefetcher
children=power_state table_indexing_policy table_replacement_policy
block_size=64
cache_snoop=false
clk_domain=system.cpu_cluster.clk_domain
confidence_counter_bits=3
confidence_threshold=50
degree=8
eventq_index=0
initial_confidence=4
latency=1
max_prefetch_requests_with_pending_translation=32
on_data=true
on_inst=false
on_miss=false
on_read=true
on_write=true
page_bytes=4096
power_model=
power_state=system.cpu_cluster.l2.prefetcher.power_state
prefetch_on_access=true
prefetch_on_pf_hit=false
queue_filter=true
queue_size=32
queue_squash=true
sys=system
table_assoc=4
table_entries=64
table_indexing_policy=system.cpu_cluster.l2.prefetcher.table_indexing_policy
table_replacement_policy=system.cpu_cluster.l2.prefetcher.table_replacement_policy
tag_prefetch=true
throttle_control_percentage=0
use_requestor_id=true
use_virtual_addresses=false

[system.cpu_cluster.l2.prefetcher.power_state]
type=PowerState
clk_gate_bins=20
clk_gate_max=1000000000000
clk_gate_min=1000
default_state=UNDEFINED
eventq_index=0
leaders=
possible_states=

[system.cpu_cluster.l2.prefetcher.table_indexing_policy]
type=StridePrefetcherHashedSetAssociative
assoc=4
entry_size=1
eventq_index=0
size=64

[system.cpu_cluster.l2.prefetcher.table_replacement_policy]
type=RandomRP
eventq_index=0

[system.cpu_cluster.l2.replacement_policy]
type=RandomRP
eventq_index=0

[system.cpu_cluster.l2.tags]
type=BaseSetAssoc
children=indexing_policy power_state
assoc=16
block_size=64
clk_domain=system.cpu_cluster.clk_domain
entry_size=64
eventq_index=0
indexing_policy=system.cpu_cluster.l2.tags.indexing_policy
power_model=
power_state=system.cpu_cluster.l2.tags.power_state
replacement_policy=system.cpu_cluster.l2.replacement_policy
sequential_access=false
size=2097152
system=system
tag_latency=15
warmup_percentage=0

[system.cpu_cluster.l2.tags.indexing_policy]
type=SetAssociative
assoc=16
entry_size=64
eventq_index=0
size=2097152

[system.cpu_cluster.l2.tags.power_state]
type=PowerState
clk_gate_bins=20
clk_gate_max=1000000000000
clk_gate_min=1000
default_state=UNDEFINED
eventq_index=0
leaders=
possible_states=

[system.cpu_cluster.toL2Bus]
type=CoherentXBar
children=power_state snoop_filter
clk_domain=system.cpu_cluster.clk_domain
eventq_index=0
forward_latency=0
frontend_latency=1
header_latency=1
max_outstanding_snoops=512
max_routing_table_size=512
point_of_coherency=false
point_of_unification=true
power_model=
power_state=system.cpu_cluster.toL2Bus.power_state
response_latency=1
snoop_filter=system.cpu_cluster.toL2Bus.snoop_filter
snoop_response_latency=1
system=system
use_default_range=false
width=64
cpu_side_ports=system.cpu_cluster.cpus.icache.mem_side system.cpu_cluster.cpus.dcache.mem_side system.cpu_cluster.cpus.mmu.itb_walker.port system.cpu_cluster.cpus.mmu.dtb_walker.port system.cpu_cluster.cpus.mmu.stage2_itb_walker.port system.cpu_cluster.cpus.mmu.stage2_dtb_walker.port
mem_side_ports=system.cpu_cluster.l2.cpu_side

[system.cpu_cluster.toL2Bus.power_state]
type=PowerState
clk_gate_bins=20
clk_gate_max=1000000000000
clk_gate_min=1000
default_state=UNDEFINED
eventq_index=0
leaders=
possible_states=

[system.cpu_cluster.toL2Bus.snoop_filter]
type=SnoopFilter
eventq_index=0
lookup_latency=0
max_capacity=8388608
system=system

[system.cpu_cluster.voltage_domain]
type=VoltageDomain
eventq_index=0
voltage=1.2

[system.dvfs_handler]
type=DVFSHandler
domains=
enable=false
eventq_index=0
sys_clk_domain=system.clk_domain
transition_latency=100000000

[system.mem_ctrls0]
type=MemCtrl
children=dram power_state
clk_domain=system.clk_domain
command_window=10000
disable_sanity_check=false
dram=system.mem_ctrls0.dram
eventq_index=0
mem_sched_policy=frfcfs
min_reads_per_switch=16
min_writes_per_switch=16
power_model=
power_state=system.mem_ctrls0.power_state
qos_policy=Null
qos_priorities=1
qos_priority_escalation=false
qos_q_policy=fifo
qos_requestors=               
qos_syncro_scheduler=false
qos_turnaround_policy=Null
static_backend_latency=10000
static_frontend_latency=10000
system=system
write_high_thresh_perc=85
write_low_thresh_perc=50
port=system.membus.mem_side_ports[0]

[system.mem_ctrls0.dram]
type=DRAMInterface
children=power_state
IDD0=0.055
IDD02=0.0
IDD2N=0.032
IDD2N2=0.0
IDD2P0=0.0
IDD2P02=0.0
IDD2P1=0.032
IDD2P12=0.0
IDD3N=0.038
IDD3N2=0.0
IDD3P0=0.0
IDD3P02=0.0
IDD3P1=0.038
IDD3P12=0.0
IDD4R=0.157
IDD4R2=0.0
IDD4W=0.125
IDD4W2=0.0
IDD5=0.23500000000000001
IDD52=0.0
IDD6=0.02
IDD62=0.0
VDD=1.5
VDD2=0.0
activation_limit=4
addr_mapping=RoRaBaCoCh
bank_groups_per_rank=0
banks_per_rank=8
beats_per_clock=2
burst_length=8
clk_domain=system.clk_domain
conf_table_reported=true
data_clock_sync=false
device_bus_width=8
device_rowbuffer_size=1024
device_size=536870912
devices_per_rank=8
dll=true
enable_dram_powerdown=false
eventq_index=0
image_file=
in_addr_map=true
kvm_map=true
max_accesses_per_row=16
null=false
page_policy=open_adaptive
power_model=
power_state=system.mem_ctrls0.dram.power_state
range=0:2147483648:0:128
ranks_per_channel=2
read_buffer_size=32
tAAD=1250
tBURST=5000
tBURST_MAX=5000
tBURST_MIN=5000
tCCD_L=0
tCCD_L_WR=0
tCK=1250
tCL=13750
tCS=2500
tCWL=13750
tPPD=0
tRAS=35000
tRCD=13750
tRCD_WR=13750
tREFI=7800000
tRFC=260000
tRP=13750
tRRD=6000
tRRD_L=0
tRTP=7500
tRTW=2500
tWR=15000
tWTR=7500
tWTR_L=7500
tXAW=30000
tXP=6000
tXPDLL=0
tXS=270000
tXSDLL=0
two_cycle_activate=false
write_buffer_size=64
writeable=true

[system.mem_ctrls0.dram.power_state]
type=PowerState
clk_gate_bins=20
clk_gate_max=1000000000000
clk_gate_min=1000
default_state=UNDEFINED
eventq_index=0
leaders=
possible_states=

[system.mem_ctrls0.power_state]
type=PowerState
clk_gate_bins=20
clk_gate_max=1000000000000
clk_gate_min=1000
default_state=UNDEFINED
eventq_index=0
leaders=
possible_states=

[system.mem_ctrls1]
type=MemCtrl
children=dram power_state
clk_domain=system.clk_domain
command_window=10000
disable_sanity_check=false
dram=system.mem_ctrls1.dram
eventq_index=0
mem_sched_policy=frfcfs
min_reads_per_switch=16
min_writes_per_switch=16
power_model=
power_state=system.mem_ctrls1.power_state
qos_policy=Null
qos_priorities=1
qos_priority_escalation=false
qos_q_policy=fifo
qos_requestors=               
qos_syncro_scheduler=false
qos_turnaround_policy=Null
static_backend_latency=10000
static_frontend_latency=10000
system=system
write_high_thresh_perc=85
write_low_thresh_perc=50
port=system.membus.mem_side_ports[1]

[system.mem_ctrls1.dram]
type=DRAMInterface
children=power_state
IDD0=0.055
IDD02=0.0
IDD2N=0.032
IDD2N2=0.0
IDD2P0=0.0
IDD2P02=0.0
IDD2P1=0.032
IDD2P12=0.0
IDD3N=0.038
IDD3N2=0.0
IDD3P0=0.0
IDD3P02=0.0
IDD3P1=0.038
IDD3P12=0.0
IDD4R=0.157
IDD4R2=0.0
IDD4W=0.125
IDD4W2=0.0
IDD5=0.23500000000000001
IDD52=0.0
IDD6=0.02
IDD62=0.0
VDD=1.5
VDD2=0.0
activation_limit=4
addr_mapping=RoRaBaCoCh
bank_groups_per_rank=0
banks_per_rank=8
beats_per_clock=2
burst_length=8
clk_domain=system.clk_domain
conf_table_reported=true
data_clock_sync=false
device_bus_width=8
device_rowbuffer_size=1024
device_size=536870912
devices_per_rank=8
dll=true
enable_dram_powerdown=false
eventq_index=0
image_file=
in_addr_map=true
kvm_map=true
max_accesses_per_row=16
null=false
page_policy=open_adaptive
power_model=
power_state=system.mem_ctrls1.dram.power_state
range=0:2147483648:1:128
ranks_per_channel=2
read_buffer_size=32
tAAD=1250
tBURST=5000
tBURST_MAX=5000
tBURST_MIN=5000
tCCD_L=0
tCCD_L_WR=0
tCK=1250
tCL=13750
tCS=2500
tCWL=13750
tPPD=0
tRAS=35000
tRCD=13750
tRCD_WR=13750
tREFI=7800000
tRFC=260000
tRP=13750
tRRD=6000
tRRD_L=0
tRTP=7500
tRTW=2500
tWR=15000
tWTR=7500
tWTR_L=7500
tXAW=30000
tXP=6000
tXPDLL=0
tXS=270000
tXSDLL=0
two_cycle_activate=false
write_buffer_size=64
writeable=true

[system.mem_ctrls1.dram.power_state]
type=PowerState
clk_gate_bins=20
clk_gate_max=1000000000000
clk_gate_min=1000
default_state=UNDEFINED
eventq_index=0
leaders=
possible_states=

[system.mem_ctrls1.power_state]
type=PowerState
clk_gate_bins=20
clk_gate_max=1000000000000
clk_gate_min=1000
default_state=UNDEFINED
eventq_index=0
leaders=
possible_states=

[system.membus]
type=CoherentXBar
children=power_state snoop_filter
clk_domain=system.clk_domain
eventq_index=0
forward_latency=4
frontend_latency=3
header_latency=1
max_outstanding_snoops=512
max_routing_table_size=512
point_of_coherency=true
point_of_unification=true
power_model=
power_state=system.membus.power_state
response_latency=2
snoop_filter=system.membus.snoop_filter
snoop_response_latency=4
system=system
use_default_range=false
width=16
cpu_side_ports=system.system_port system.cpu_cluster.l2.mem_side
mem_side_ports=system.mem_ctrls0.port system.mem_ctrls1.port

[system.membus.power_state]
type=PowerState
clk_gate_bins=20
clk_gate_max=1000000000000
clk_gate_min=1000
default_state=UNDEFINED
eventq_index=0
leaders=
possible_states=

[system.membus.snoop_filter]
type=SnoopFilter
eventq_index=0
lookup_latency=1